Circuit: * C:\Users\USER\Documents\LTspiceXVII\LTspice-Projects-\Draft1.asc

.OP point found by inspection.
.step vgs=0
.step vgs=2
.step vgs=4
.step vgs=6
.step vgs=8
.step vgs=10

Date: Tue Nov 01 12:28:06 2022
Total elapsed time: 0.359 seconds.

tnom = 27
temp = 27
method = trap
totiter = 3628
traniter = 0
tranpoints = 0
accept = 0
rejected = 0
matrix size = 6
fillins = 0
solver = Normal
Matrix Compiler1: 146 bytes object code size  0.1/0.1/[0.1]
Matrix Compiler2: 380 bytes object code size  0.1/0.1/[0.1]

